<routes>
            <vTypeDistribution id="standard_car">
                <vType id="type1" guiShape="bus" vClass="bus"  probability="0.05"/>
                <vType id="type2" guiShape="truck" vClass="truck"  probability="0.05"/>
                <vType accel="2.6" decel="4.5" id="standard_car_origin" guiShape="passenger" length="5.0" minGap="2.5" maxSpeed="31" sigma="0.5" probability="0.9"/>
            </vTypeDistribution>
            

            <route id="W_N" edges="W2TL TL2N"/>s
            <route id="W_E" edges="W2TL TL2E"/>
            <route id="W_S" edges="W2TL TL2S"/>
            <route id="N_W" edges="N2TL TL2W"/>
            <route id="N_E" edges="N2TL TL2E"/>
            <route id="N_S" edges="N2TL TL2S"/>
            <route id="E_W" edges="E2TL TL2W"/>
            <route id="E_N" edges="E2TL TL2N"/>
            <route id="E_S" edges="E2TL TL2S"/>
            <route id="S_W" edges="S2TL TL2W"/>
            <route id="S_N" edges="S2TL TL2N"/>
            <route id="S_E" edges="S2TL TL2E"/>
    <vehicle id="N_S_0" type="standard_car" route="N_S" depart="2.0" departLane="random" departSpeed="10" />
    <vehicle id="S_N_1" type="standard_car" route="S_N" depart="35.0" departLane="random" departSpeed="10" />
    <vehicle id="W_E_2" type="standard_car" route="W_E" depart="67.0" departLane="random" departSpeed="10" />
    <vehicle id="S_E_3" type="standard_car" route="S_E" depart="104.0" departLane="random" departSpeed="10" />
    <vehicle id="E_W_4" type="standard_car" route="E_W" depart="115.0" departLane="random" departSpeed="10" />
    <vehicle id="S_N_5" type="standard_car" route="S_N" depart="129.0" departLane="random" departSpeed="10" />
    <vehicle id="N_S_6" type="standard_car" route="N_S" depart="131.0" departLane="random" departSpeed="10" />
    <vehicle id="S_N_7" type="standard_car" route="S_N" depart="165.0" departLane="random" departSpeed="10" />
    <vehicle id="N_S_8" type="standard_car" route="N_S" depart="170.0" departLane="random" departSpeed="10" />
    <vehicle id="N_S_9" type="standard_car" route="N_S" depart="173.0" departLane="random" departSpeed="10" />
    <vehicle id="E_S_10" type="standard_car" route="E_S" depart="174.0" departLane="random" departSpeed="10" />
    <vehicle id="N_S_11" type="standard_car" route="N_S" depart="179.0" departLane="random" departSpeed="10" />
    <vehicle id="N_S_12" type="standard_car" route="N_S" depart="180.0" departLane="random" departSpeed="10" />
    <vehicle id="N_S_13" type="standard_car" route="N_S" depart="183.0" departLane="random" departSpeed="10" />
    <vehicle id="N_S_14" type="standard_car" route="N_S" depart="191.0" departLane="random" departSpeed="10" />
    <vehicle id="W_N_15" type="standard_car" route="W_N" depart="193.0" departLane="random" departSpeed="10" />
    <vehicle id="E_N_16" type="standard_car" route="E_N" depart="194.0" departLane="random" departSpeed="10" />
    <vehicle id="N_W_17" type="standard_car" route="N_W" depart="202.0" departLane="random" departSpeed="10" />
    <vehicle id="N_S_18" type="standard_car" route="N_S" depart="208.0" departLane="random" departSpeed="10" />
    <vehicle id="E_S_19" type="standard_car" route="E_S" depart="211.0" departLane="random" departSpeed="10" />
    <vehicle id="W_S_20" type="standard_car" route="W_S" depart="213.0" departLane="random" departSpeed="10" />
    <vehicle id="W_S_21" type="standard_car" route="W_S" depart="218.0" departLane="random" departSpeed="10" />
    <vehicle id="W_E_22" type="standard_car" route="W_E" depart="223.0" departLane="random" departSpeed="10" />
    <vehicle id="S_N_23" type="standard_car" route="S_N" depart="231.0" departLane="random" departSpeed="10" />
    <vehicle id="W_E_24" type="standard_car" route="W_E" depart="231.0" departLane="random" departSpeed="10" />
    <vehicle id="N_S_25" type="standard_car" route="N_S" depart="232.0" departLane="random" departSpeed="10" />
    <vehicle id="E_W_26" type="standard_car" route="E_W" depart="236.0" departLane="random" departSpeed="10" />
    <vehicle id="E_N_27" type="standard_car" route="E_N" depart="240.0" departLane="random" departSpeed="10" />
    <vehicle id="W_E_28" type="standard_car" route="W_E" depart="240.0" departLane="random" departSpeed="10" />
    <vehicle id="E_W_29" type="standard_car" route="E_W" depart="240.0" departLane="random" departSpeed="10" />
    <vehicle id="S_N_30" type="standard_car" route="S_N" depart="247.0" departLane="random" departSpeed="10" />
    <vehicle id="E_W_31" type="standard_car" route="E_W" depart="249.0" departLane="random" departSpeed="10" />
    <vehicle id="N_W_32" type="standard_car" route="N_W" depart="250.0" departLane="random" departSpeed="10" />
    <vehicle id="N_E_33" type="standard_car" route="N_E" depart="260.0" departLane="random" departSpeed="10" />
    <vehicle id="E_W_34" type="standard_car" route="E_W" depart="273.0" departLane="random" departSpeed="10" />
    <vehicle id="S_N_35" type="standard_car" route="S_N" depart="276.0" departLane="random" departSpeed="10" />
    <vehicle id="N_W_36" type="standard_car" route="N_W" depart="279.0" departLane="random" departSpeed="10" />
    <vehicle id="N_E_37" type="standard_car" route="N_E" depart="279.0" departLane="random" departSpeed="10" />
    <vehicle id="S_E_38" type="standard_car" route="S_E" depart="280.0" departLane="random" departSpeed="10" />
    <vehicle id="E_W_39" type="standard_car" route="E_W" depart="280.0" departLane="random" departSpeed="10" />
    <vehicle id="W_E_40" type="standard_car" route="W_E" depart="283.0" departLane="random" departSpeed="10" />
    <vehicle id="S_N_41" type="standard_car" route="S_N" depart="285.0" departLane="random" departSpeed="10" />
    <vehicle id="W_E_42" type="standard_car" route="W_E" depart="285.0" departLane="random" departSpeed="10" />
    <vehicle id="N_S_43" type="standard_car" route="N_S" depart="289.0" departLane="random" departSpeed="10" />
    <vehicle id="E_W_44" type="standard_car" route="E_W" depart="296.0" departLane="random" departSpeed="10" />
    <vehicle id="N_E_45" type="standard_car" route="N_E" depart="298.0" departLane="random" departSpeed="10" />
    <vehicle id="N_S_46" type="standard_car" route="N_S" depart="298.0" departLane="random" departSpeed="10" />
    <vehicle id="W_S_47" type="standard_car" route="W_S" depart="306.0" departLane="random" departSpeed="10" />
    <vehicle id="S_N_48" type="standard_car" route="S_N" depart="307.0" departLane="random" departSpeed="10" />
    <vehicle id="N_S_49" type="standard_car" route="N_S" depart="315.0" departLane="random" departSpeed="10" />
    <vehicle id="S_N_50" type="standard_car" route="S_N" depart="321.0" departLane="random" departSpeed="10" />
    <vehicle id="S_E_51" type="standard_car" route="S_E" depart="321.0" departLane="random" departSpeed="10" />
    <vehicle id="E_W_52" type="standard_car" route="E_W" depart="321.0" departLane="random" departSpeed="10" />
    <vehicle id="S_N_53" type="standard_car" route="S_N" depart="325.0" departLane="random" departSpeed="10" />
    <vehicle id="N_S_54" type="standard_car" route="N_S" depart="328.0" departLane="random" departSpeed="10" />
    <vehicle id="N_S_55" type="standard_car" route="N_S" depart="331.0" departLane="random" departSpeed="10" />
    <vehicle id="E_N_56" type="standard_car" route="E_N" depart="337.0" departLane="random" departSpeed="10" />
    <vehicle id="S_E_57" type="standard_car" route="S_E" depart="338.0" departLane="random" departSpeed="10" />
    <vehicle id="E_W_58" type="standard_car" route="E_W" depart="340.0" departLane="random" departSpeed="10" />
    <vehicle id="N_E_59" type="standard_car" route="N_E" depart="350.0" departLane="random" departSpeed="10" />
    <vehicle id="W_E_60" type="standard_car" route="W_E" depart="352.0" departLane="random" departSpeed="10" />
    <vehicle id="S_N_61" type="standard_car" route="S_N" depart="353.0" departLane="random" departSpeed="10" />
    <vehicle id="W_E_62" type="standard_car" route="W_E" depart="356.0" departLane="random" departSpeed="10" />
    <vehicle id="E_W_63" type="standard_car" route="E_W" depart="359.0" departLane="random" departSpeed="10" />
    <vehicle id="S_E_64" type="standard_car" route="S_E" depart="376.0" departLane="random" departSpeed="10" />
    <vehicle id="N_S_65" type="standard_car" route="N_S" depart="379.0" departLane="random" departSpeed="10" />
    <vehicle id="S_N_66" type="standard_car" route="S_N" depart="380.0" departLane="random" departSpeed="10" />
    <vehicle id="W_S_67" type="standard_car" route="W_S" depart="384.0" departLane="random" departSpeed="10" />
    <vehicle id="S_W_68" type="standard_car" route="S_W" depart="384.0" departLane="random" departSpeed="10" />
    <vehicle id="N_E_69" type="standard_car" route="N_E" depart="385.0" departLane="random" departSpeed="10" />
    <vehicle id="S_W_70" type="standard_car" route="S_W" depart="391.0" departLane="random" departSpeed="10" />
    <vehicle id="S_N_71" type="standard_car" route="S_N" depart="393.0" departLane="random" departSpeed="10" />
    <vehicle id="E_W_72" type="standard_car" route="E_W" depart="397.0" departLane="random" departSpeed="10" />
    <vehicle id="W_E_73" type="standard_car" route="W_E" depart="398.0" departLane="random" departSpeed="10" />
    <vehicle id="E_W_74" type="standard_car" route="E_W" depart="399.0" departLane="random" departSpeed="10" />
    <vehicle id="S_N_75" type="standard_car" route="S_N" depart="401.0" departLane="random" departSpeed="10" />
    <vehicle id="E_W_76" type="standard_car" route="E_W" depart="403.0" departLane="random" departSpeed="10" />
    <vehicle id="W_E_77" type="standard_car" route="W_E" depart="406.0" departLane="random" departSpeed="10" />
    <vehicle id="E_W_78" type="standard_car" route="E_W" depart="411.0" departLane="random" departSpeed="10" />
    <vehicle id="E_N_79" type="standard_car" route="E_N" depart="415.0" departLane="random" departSpeed="10" />
    <vehicle id="W_N_80" type="standard_car" route="W_N" depart="418.0" departLane="random" departSpeed="10" />
    <vehicle id="E_W_81" type="standard_car" route="E_W" depart="418.0" departLane="random" departSpeed="10" />
    <vehicle id="S_N_82" type="standard_car" route="S_N" depart="419.0" departLane="random" departSpeed="10" />
    <vehicle id="W_E_83" type="standard_car" route="W_E" depart="423.0" departLane="random" departSpeed="10" />
    <vehicle id="E_N_84" type="standard_car" route="E_N" depart="432.0" departLane="random" departSpeed="10" />
    <vehicle id="N_S_85" type="standard_car" route="N_S" depart="433.0" departLane="random" departSpeed="10" />
    <vehicle id="N_S_86" type="standard_car" route="N_S" depart="435.0" departLane="random" departSpeed="10" />
    <vehicle id="S_N_87" type="standard_car" route="S_N" depart="437.0" departLane="random" departSpeed="10" />
    <vehicle id="W_N_88" type="standard_car" route="W_N" depart="439.0" departLane="random" departSpeed="10" />
    <vehicle id="S_N_89" type="standard_car" route="S_N" depart="441.0" departLane="random" departSpeed="10" />
    <vehicle id="W_E_90" type="standard_car" route="W_E" depart="442.0" departLane="random" departSpeed="10" />
    <vehicle id="W_S_91" type="standard_car" route="W_S" depart="443.0" departLane="random" departSpeed="10" />
    <vehicle id="E_S_92" type="standard_car" route="E_S" depart="443.0" departLane="random" departSpeed="10" />
    <vehicle id="W_N_93" type="standard_car" route="W_N" depart="443.0" departLane="random" departSpeed="10" />
    <vehicle id="W_E_94" type="standard_car" route="W_E" depart="445.0" departLane="random" departSpeed="10" />
    <vehicle id="N_E_95" type="standard_car" route="N_E" depart="447.0" departLane="random" departSpeed="10" />
    <vehicle id="W_E_96" type="standard_car" route="W_E" depart="448.0" departLane="random" departSpeed="10" />
    <vehicle id="S_N_97" type="standard_car" route="S_N" depart="450.0" departLane="random" departSpeed="10" />
    <vehicle id="S_W_98" type="standard_car" route="S_W" depart="452.0" departLane="random" departSpeed="10" />
    <vehicle id="W_E_99" type="standard_car" route="W_E" depart="455.0" departLane="random" departSpeed="10" />
    <vehicle id="W_S_100" type="standard_car" route="W_S" depart="456.0" departLane="random" departSpeed="10" />
    <vehicle id="N_S_101" type="standard_car" route="N_S" depart="462.0" departLane="random" departSpeed="10" />
    <vehicle id="E_W_102" type="standard_car" route="E_W" depart="463.0" departLane="random" departSpeed="10" />
    <vehicle id="N_S_103" type="standard_car" route="N_S" depart="465.0" departLane="random" departSpeed="10" />
    <vehicle id="W_E_104" type="standard_car" route="W_E" depart="466.0" departLane="random" departSpeed="10" />
    <vehicle id="S_W_105" type="standard_car" route="S_W" depart="471.0" departLane="random" departSpeed="10" />
    <vehicle id="N_S_106" type="standard_car" route="N_S" depart="482.0" departLane="random" departSpeed="10" />
    <vehicle id="N_S_107" type="standard_car" route="N_S" depart="483.0" departLane="random" departSpeed="10" />
    <vehicle id="N_W_108" type="standard_car" route="N_W" depart="483.0" departLane="random" departSpeed="10" />
    <vehicle id="N_S_109" type="standard_car" route="N_S" depart="484.0" departLane="random" departSpeed="10" />
    <vehicle id="S_N_110" type="standard_car" route="S_N" depart="486.0" departLane="random" departSpeed="10" />
    <vehicle id="S_N_111" type="standard_car" route="S_N" depart="488.0" departLane="random" departSpeed="10" />
    <vehicle id="N_E_112" type="standard_car" route="N_E" depart="492.0" departLane="random" departSpeed="10" />
    <vehicle id="N_E_113" type="standard_car" route="N_E" depart="492.0" departLane="random" departSpeed="10" />
    <vehicle id="N_S_114" type="standard_car" route="N_S" depart="493.0" departLane="random" departSpeed="10" />
    <vehicle id="W_E_115" type="standard_car" route="W_E" depart="493.0" departLane="random" departSpeed="10" />
    <vehicle id="W_N_116" type="standard_car" route="W_N" depart="493.0" departLane="random" departSpeed="10" />
    <vehicle id="S_N_117" type="standard_car" route="S_N" depart="494.0" departLane="random" departSpeed="10" />
    <vehicle id="N_S_118" type="standard_car" route="N_S" depart="494.0" departLane="random" departSpeed="10" />
    <vehicle id="S_N_119" type="standard_car" route="S_N" depart="494.0" departLane="random" departSpeed="10" />
    <vehicle id="N_S_120" type="standard_car" route="N_S" depart="503.0" departLane="random" departSpeed="10" />
    <vehicle id="E_W_121" type="standard_car" route="E_W" depart="504.0" departLane="random" departSpeed="10" />
    <vehicle id="N_S_122" type="standard_car" route="N_S" depart="504.0" departLane="random" departSpeed="10" />
    <vehicle id="E_S_123" type="standard_car" route="E_S" depart="505.0" departLane="random" departSpeed="10" />
    <vehicle id="W_E_124" type="standard_car" route="W_E" depart="506.0" departLane="random" departSpeed="10" />
    <vehicle id="W_E_125" type="standard_car" route="W_E" depart="509.0" departLane="random" departSpeed="10" />
    <vehicle id="S_N_126" type="standard_car" route="S_N" depart="509.0" departLane="random" departSpeed="10" />
    <vehicle id="E_W_127" type="standard_car" route="E_W" depart="510.0" departLane="random" departSpeed="10" />
    <vehicle id="N_S_128" type="standard_car" route="N_S" depart="511.0" departLane="random" departSpeed="10" />
    <vehicle id="N_S_129" type="standard_car" route="N_S" depart="515.0" departLane="random" departSpeed="10" />
    <vehicle id="E_S_130" type="standard_car" route="E_S" depart="516.0" departLane="random" departSpeed="10" />
    <vehicle id="W_E_131" type="standard_car" route="W_E" depart="517.0" departLane="random" departSpeed="10" />
    <vehicle id="N_S_132" type="standard_car" route="N_S" depart="525.0" departLane="random" departSpeed="10" />
    <vehicle id="S_W_133" type="standard_car" route="S_W" depart="531.0" departLane="random" departSpeed="10" />
    <vehicle id="E_W_134" type="standard_car" route="E_W" depart="535.0" departLane="random" departSpeed="10" />
    <vehicle id="N_S_135" type="standard_car" route="N_S" depart="536.0" departLane="random" departSpeed="10" />
    <vehicle id="N_S_136" type="standard_car" route="N_S" depart="536.0" departLane="random" departSpeed="10" />
    <vehicle id="E_W_137" type="standard_car" route="E_W" depart="537.0" departLane="random" departSpeed="10" />
    <vehicle id="S_N_138" type="standard_car" route="S_N" depart="539.0" departLane="random" departSpeed="10" />
    <vehicle id="S_N_139" type="standard_car" route="S_N" depart="546.0" departLane="random" departSpeed="10" />
    <vehicle id="S_E_140" type="standard_car" route="S_E" depart="546.0" departLane="random" departSpeed="10" />
    <vehicle id="S_W_141" type="standard_car" route="S_W" depart="547.0" departLane="random" departSpeed="10" />
    <vehicle id="N_S_142" type="standard_car" route="N_S" depart="554.0" departLane="random" departSpeed="10" />
    <vehicle id="S_N_143" type="standard_car" route="S_N" depart="556.0" departLane="random" departSpeed="10" />
    <vehicle id="E_W_144" type="standard_car" route="E_W" depart="556.0" departLane="random" departSpeed="10" />
    <vehicle id="W_S_145" type="standard_car" route="W_S" depart="557.0" departLane="random" departSpeed="10" />
    <vehicle id="W_E_146" type="standard_car" route="W_E" depart="558.0" departLane="random" departSpeed="10" />
    <vehicle id="S_N_147" type="standard_car" route="S_N" depart="559.0" departLane="random" departSpeed="10" />
    <vehicle id="S_N_148" type="standard_car" route="S_N" depart="559.0" departLane="random" departSpeed="10" />
    <vehicle id="E_N_149" type="standard_car" route="E_N" depart="561.0" departLane="random" departSpeed="10" />
    <vehicle id="S_N_150" type="standard_car" route="S_N" depart="562.0" departLane="random" departSpeed="10" />
    <vehicle id="W_E_151" type="standard_car" route="W_E" depart="564.0" departLane="random" departSpeed="10" />
    <vehicle id="N_E_152" type="standard_car" route="N_E" depart="567.0" departLane="random" departSpeed="10" />
    <vehicle id="W_N_153" type="standard_car" route="W_N" depart="570.0" departLane="random" departSpeed="10" />
    <vehicle id="E_N_154" type="standard_car" route="E_N" depart="573.0" departLane="random" departSpeed="10" />
    <vehicle id="E_S_155" type="standard_car" route="E_S" depart="576.0" departLane="random" departSpeed="10" />
    <vehicle id="S_N_156" type="standard_car" route="S_N" depart="577.0" departLane="random" departSpeed="10" />
    <vehicle id="N_S_157" type="standard_car" route="N_S" depart="582.0" departLane="random" departSpeed="10" />
    <vehicle id="W_E_158" type="standard_car" route="W_E" depart="582.0" departLane="random" departSpeed="10" />
    <vehicle id="S_N_159" type="standard_car" route="S_N" depart="584.0" departLane="random" departSpeed="10" />
    <vehicle id="N_S_160" type="standard_car" route="N_S" depart="585.0" departLane="random" departSpeed="10" />
    <vehicle id="N_S_161" type="standard_car" route="N_S" depart="586.0" departLane="random" departSpeed="10" />
    <vehicle id="W_E_162" type="standard_car" route="W_E" depart="586.0" departLane="random" departSpeed="10" />
    <vehicle id="E_N_163" type="standard_car" route="E_N" depart="593.0" departLane="random" departSpeed="10" />
    <vehicle id="E_W_164" type="standard_car" route="E_W" depart="598.0" departLane="random" departSpeed="10" />
    <vehicle id="N_S_165" type="standard_car" route="N_S" depart="605.0" departLane="random" departSpeed="10" />
    <vehicle id="S_E_166" type="standard_car" route="S_E" depart="611.0" departLane="random" departSpeed="10" />
    <vehicle id="N_S_167" type="standard_car" route="N_S" depart="617.0" departLane="random" departSpeed="10" />
    <vehicle id="N_S_168" type="standard_car" route="N_S" depart="617.0" departLane="random" departSpeed="10" />
    <vehicle id="N_E_169" type="standard_car" route="N_E" depart="622.0" departLane="random" departSpeed="10" />
    <vehicle id="E_W_170" type="standard_car" route="E_W" depart="623.0" departLane="random" departSpeed="10" />
    <vehicle id="S_N_171" type="standard_car" route="S_N" depart="625.0" departLane="random" departSpeed="10" />
    <vehicle id="E_W_172" type="standard_car" route="E_W" depart="626.0" departLane="random" departSpeed="10" />
    <vehicle id="E_W_173" type="standard_car" route="E_W" depart="627.0" departLane="random" departSpeed="10" />
    <vehicle id="W_E_174" type="standard_car" route="W_E" depart="627.0" departLane="random" departSpeed="10" />
    <vehicle id="S_N_175" type="standard_car" route="S_N" depart="627.0" departLane="random" departSpeed="10" />
    <vehicle id="S_N_176" type="standard_car" route="S_N" depart="633.0" departLane="random" departSpeed="10" />
    <vehicle id="E_N_177" type="standard_car" route="E_N" depart="633.0" departLane="random" departSpeed="10" />
    <vehicle id="S_N_178" type="standard_car" route="S_N" depart="634.0" departLane="random" departSpeed="10" />
    <vehicle id="S_W_179" type="standard_car" route="S_W" depart="639.0" departLane="random" departSpeed="10" />
    <vehicle id="S_N_180" type="standard_car" route="S_N" depart="640.0" departLane="random" departSpeed="10" />
    <vehicle id="N_S_181" type="standard_car" route="N_S" depart="644.0" departLane="random" departSpeed="10" />
    <vehicle id="E_W_182" type="standard_car" route="E_W" depart="645.0" departLane="random" departSpeed="10" />
    <vehicle id="N_S_183" type="standard_car" route="N_S" depart="646.0" departLane="random" departSpeed="10" />
    <vehicle id="N_S_184" type="standard_car" route="N_S" depart="652.0" departLane="random" departSpeed="10" />
    <vehicle id="W_E_185" type="standard_car" route="W_E" depart="655.0" departLane="random" departSpeed="10" />
    <vehicle id="W_E_186" type="standard_car" route="W_E" depart="657.0" departLane="random" departSpeed="10" />
    <vehicle id="N_S_187" type="standard_car" route="N_S" depart="658.0" departLane="random" departSpeed="10" />
    <vehicle id="N_S_188" type="standard_car" route="N_S" depart="661.0" departLane="random" departSpeed="10" />
    <vehicle id="W_E_189" type="standard_car" route="W_E" depart="662.0" departLane="random" departSpeed="10" />
    <vehicle id="E_N_190" type="standard_car" route="E_N" depart="664.0" departLane="random" departSpeed="10" />
    <vehicle id="S_N_191" type="standard_car" route="S_N" depart="667.0" departLane="random" departSpeed="10" />
    <vehicle id="E_S_192" type="standard_car" route="E_S" depart="669.0" departLane="random" departSpeed="10" />
    <vehicle id="S_E_193" type="standard_car" route="S_E" depart="669.0" departLane="random" departSpeed="10" />
    <vehicle id="N_S_194" type="standard_car" route="N_S" depart="669.0" departLane="random" departSpeed="10" />
    <vehicle id="N_S_195" type="standard_car" route="N_S" depart="672.0" departLane="random" departSpeed="10" />
    <vehicle id="S_N_196" type="standard_car" route="S_N" depart="672.0" departLane="random" departSpeed="10" />
    <vehicle id="E_W_197" type="standard_car" route="E_W" depart="676.0" departLane="random" departSpeed="10" />
    <vehicle id="E_W_198" type="standard_car" route="E_W" depart="677.0" departLane="random" departSpeed="10" />
    <vehicle id="S_N_199" type="standard_car" route="S_N" depart="678.0" departLane="random" departSpeed="10" />
    <vehicle id="W_N_200" type="standard_car" route="W_N" depart="678.0" departLane="random" departSpeed="10" />
    <vehicle id="E_W_201" type="standard_car" route="E_W" depart="679.0" departLane="random" departSpeed="10" />
    <vehicle id="E_N_202" type="standard_car" route="E_N" depart="680.0" departLane="random" departSpeed="10" />
    <vehicle id="N_S_203" type="standard_car" route="N_S" depart="680.0" departLane="random" departSpeed="10" />
    <vehicle id="N_S_204" type="standard_car" route="N_S" depart="680.0" departLane="random" departSpeed="10" />
    <vehicle id="W_E_205" type="standard_car" route="W_E" depart="683.0" departLane="random" departSpeed="10" />
    <vehicle id="S_N_206" type="standard_car" route="S_N" depart="683.0" departLane="random" departSpeed="10" />
    <vehicle id="N_S_207" type="standard_car" route="N_S" depart="684.0" departLane="random" departSpeed="10" />
    <vehicle id="S_N_208" type="standard_car" route="S_N" depart="684.0" departLane="random" departSpeed="10" />
    <vehicle id="E_W_209" type="standard_car" route="E_W" depart="686.0" departLane="random" departSpeed="10" />
    <vehicle id="N_W_210" type="standard_car" route="N_W" depart="688.0" departLane="random" departSpeed="10" />
    <vehicle id="E_W_211" type="standard_car" route="E_W" depart="688.0" departLane="random" departSpeed="10" />
    <vehicle id="E_W_212" type="standard_car" route="E_W" depart="689.0" departLane="random" departSpeed="10" />
    <vehicle id="S_E_213" type="standard_car" route="S_E" depart="689.0" departLane="random" departSpeed="10" />
    <vehicle id="S_N_214" type="standard_car" route="S_N" depart="692.0" departLane="random" departSpeed="10" />
    <vehicle id="E_W_215" type="standard_car" route="E_W" depart="695.0" departLane="random" departSpeed="10" />
    <vehicle id="E_W_216" type="standard_car" route="E_W" depart="699.0" departLane="random" departSpeed="10" />
    <vehicle id="S_E_217" type="standard_car" route="S_E" depart="703.0" departLane="random" departSpeed="10" />
    <vehicle id="N_S_218" type="standard_car" route="N_S" depart="704.0" departLane="random" departSpeed="10" />
    <vehicle id="E_S_219" type="standard_car" route="E_S" depart="705.0" departLane="random" departSpeed="10" />
    <vehicle id="E_W_220" type="standard_car" route="E_W" depart="706.0" departLane="random" departSpeed="10" />
    <vehicle id="S_N_221" type="standard_car" route="S_N" depart="707.0" departLane="random" departSpeed="10" />
    <vehicle id="E_W_222" type="standard_car" route="E_W" depart="709.0" departLane="random" departSpeed="10" />
    <vehicle id="N_E_223" type="standard_car" route="N_E" depart="712.0" departLane="random" departSpeed="10" />
    <vehicle id="N_S_224" type="standard_car" route="N_S" depart="714.0" departLane="random" departSpeed="10" />
    <vehicle id="S_N_225" type="standard_car" route="S_N" depart="715.0" departLane="random" departSpeed="10" />
    <vehicle id="S_E_226" type="standard_car" route="S_E" depart="715.0" departLane="random" departSpeed="10" />
    <vehicle id="W_E_227" type="standard_car" route="W_E" depart="715.0" departLane="random" departSpeed="10" />
    <vehicle id="E_W_228" type="standard_car" route="E_W" depart="715.0" departLane="random" departSpeed="10" />
    <vehicle id="W_E_229" type="standard_car" route="W_E" depart="717.0" departLane="random" departSpeed="10" />
    <vehicle id="E_W_230" type="standard_car" route="E_W" depart="720.0" departLane="random" departSpeed="10" />
    <vehicle id="W_E_231" type="standard_car" route="W_E" depart="721.0" departLane="random" departSpeed="10" />
    <vehicle id="N_E_232" type="standard_car" route="N_E" depart="721.0" departLane="random" departSpeed="10" />
    <vehicle id="W_E_233" type="standard_car" route="W_E" depart="723.0" departLane="random" departSpeed="10" />
    <vehicle id="E_W_234" type="standard_car" route="E_W" depart="725.0" departLane="random" departSpeed="10" />
    <vehicle id="S_E_235" type="standard_car" route="S_E" depart="725.0" departLane="random" departSpeed="10" />
    <vehicle id="W_E_236" type="standard_car" route="W_E" depart="726.0" departLane="random" departSpeed="10" />
    <vehicle id="N_E_237" type="standard_car" route="N_E" depart="727.0" departLane="random" departSpeed="10" />
    <vehicle id="N_S_238" type="standard_car" route="N_S" depart="727.0" departLane="random" departSpeed="10" />
    <vehicle id="E_W_239" type="standard_car" route="E_W" depart="727.0" departLane="random" departSpeed="10" />
    <vehicle id="W_E_240" type="standard_car" route="W_E" depart="728.0" departLane="random" departSpeed="10" />
    <vehicle id="S_N_241" type="standard_car" route="S_N" depart="729.0" departLane="random" departSpeed="10" />
    <vehicle id="W_E_242" type="standard_car" route="W_E" depart="729.0" departLane="random" departSpeed="10" />
    <vehicle id="W_E_243" type="standard_car" route="W_E" depart="730.0" departLane="random" departSpeed="10" />
    <vehicle id="W_E_244" type="standard_car" route="W_E" depart="731.0" departLane="random" departSpeed="10" />
    <vehicle id="S_E_245" type="standard_car" route="S_E" depart="733.0" departLane="random" departSpeed="10" />
    <vehicle id="W_E_246" type="standard_car" route="W_E" depart="734.0" departLane="random" departSpeed="10" />
    <vehicle id="S_N_247" type="standard_car" route="S_N" depart="735.0" departLane="random" departSpeed="10" />
    <vehicle id="S_N_248" type="standard_car" route="S_N" depart="738.0" departLane="random" departSpeed="10" />
    <vehicle id="W_E_249" type="standard_car" route="W_E" depart="739.0" departLane="random" departSpeed="10" />
    <vehicle id="N_S_250" type="standard_car" route="N_S" depart="740.0" departLane="random" departSpeed="10" />
    <vehicle id="E_W_251" type="standard_car" route="E_W" depart="741.0" departLane="random" departSpeed="10" />
    <vehicle id="E_W_252" type="standard_car" route="E_W" depart="742.0" departLane="random" departSpeed="10" />
    <vehicle id="E_S_253" type="standard_car" route="E_S" depart="742.0" departLane="random" departSpeed="10" />
    <vehicle id="S_N_254" type="standard_car" route="S_N" depart="743.0" departLane="random" departSpeed="10" />
    <vehicle id="E_W_255" type="standard_car" route="E_W" depart="745.0" departLane="random" departSpeed="10" />
    <vehicle id="W_E_256" type="standard_car" route="W_E" depart="748.0" departLane="random" departSpeed="10" />